MatpowerDataProcesssed/d_case118.m
% 01/10/12 File data originated from Matpower data file
% 

Bus.con = [ ...
      1      138    0.955   0.1862    1    1;
      2      138    0.971   0.1958    1    1;
      3      138    0.968   0.2018    1    1;
      4      138    0.998   0.2667    1    1;
      5      138    1.002   0.2745    1    1;
      6      138     0.99   0.2269    1    1;
      7      138    0.989   0.2192    1    1;
      8      345    1.015   0.3625    1    1;
      9      345    1.043    0.489    1    1;
     10      345     1.05   0.6215    1    1;
     11      138    0.985    0.222    1    1;
     12      138     0.99   0.2129    1    1;
     13      138    0.968   0.1981    1    1;
     14      138    0.984   0.2007    1    1;
     15      138     0.97    0.196    1    1;
     16      138    0.984   0.2079    1    1;
     17      138    0.995   0.2398    1    1;
     18      138    0.973   0.2012    1    1;
     19      138    0.963   0.1929    1    1;
     20      138    0.958   0.2082    1    1;
     21      138    0.959    0.236    1    1;
     22      138     0.97   0.2806    1    1;
     23      138        1   0.3665    1    1;
     24      138    0.992   0.3646    1    1;
     25      138     1.05   0.4875    1    1;
     26      345    1.015   0.5185    1    1;
     27      138    0.968   0.2679    1    1;
     28      138    0.962   0.2377    1    1;
     29      138    0.963   0.2204    1    1;
     30      345    0.968   0.3279    1    1;
     31      138    0.967   0.2225    1    1;
     32      138    0.964   0.2583    1    1;
     33      138    0.972   0.1855    1    1;
     34      138    0.986   0.1972    1    1;
     35      138    0.981   0.1897    1    1;
     36      138     0.98   0.1897    1    1;
     37      138    0.992   0.2054    1    1;
     38      345    0.962   0.2951    1    1;
     39      138     0.97   0.1468    1    1;
     40      138     0.97   0.1283    1    1;
     41      138    0.967   0.1208    1    1;
     42      138    0.985   0.1489    1    1;
     43      138    0.978   0.1969    1    1;
     44      138    0.985   0.2412    1    1;
     45      138    0.987   0.2735    1    1;
     46      138    1.005   0.3227    1    1;
     47      138    1.017   0.3618    1    1;
     48      138    1.021   0.3478    1    1;
     49      138    1.025   0.3655    1    1;
     50      138    1.001   0.3299    1    1;
     51      138    0.967   0.2841    1    1;
     52      138    0.957   0.2674    1    1;
     53      138    0.946   0.2505    1    1;
     54      138    0.955   0.2663    1    1;
     55      138    0.952   0.2613    1    1;
     56      138    0.954   0.2646    1    1;
     57      138    0.971   0.2855    1    1;
     58      138    0.959   0.2707    1    1;
     59      138    0.985   0.3381    1    1;
     60      138    0.993    0.404    1    1;
     61      138    0.995   0.4196    1    1;
     62      138    0.998   0.4089    1    1;
     63      345    0.969   0.3971    1    1;
     64      345    0.984    0.428    1    1;
     65      345    1.005   0.4826    1    1;
     66      138     1.05   0.4796    1    1;
     67      138     1.02   0.4335    1    1;
     68      345    1.003   0.4808    1    1;
     69      138    1.035   0.5236    1    1;
     70      138    0.984   0.3941    1    1;
     71      138    0.987   0.3866    1    1;
     72      138     0.98   0.3662    1    1;
     73      138    0.991   0.3829    1    1;
     74      138    0.958   0.3777    1    1;
     75      138    0.967   0.3999    1    1;
     76      138    0.943     0.38    1    1;
     77      138    1.006   0.4664    1    1;
     78      138    1.003   0.4611    1    1;
     79      138    1.009   0.4664    1    1;
     80      138     1.04   0.5054    1    1;
     81      345    0.997   0.4904    1    1;
     82      138    0.989   0.4754    1    1;
     83      138    0.985    0.496    1    1;
     84      138     0.98   0.5402    1    1;
     85      138    0.985   0.5674    1    1;
     86      138    0.987   0.5435    1    1;
     87      161    1.015    0.548    1    1;
     88      138    0.987    0.622    1    1;
     89      138    1.005   0.6927    1    1;
     90      138    0.985    0.581    1    1;
     91      138     0.98   0.5814    1    1;
     92      138    0.993   0.5899    1    1;
     93      138    0.987   0.5374    1    1;
     94      138    0.991   0.4999    1    1;
     95      138    0.981   0.4829    1    1;
     96      138    0.993   0.4801    1    1;
     97      138    1.011   0.4866    1    1;
     98      138    1.024   0.4782    1    1;
     99      138     1.01   0.4719    1    1;
    100      138    1.017   0.4892    1    1;
    101      138    0.993   0.5168    1    1;
    102      138    0.991   0.5637    1    1;
    103      138    1.001   0.4266    1    1;
    104      138    0.971   0.3786    1    1;
    105      138    0.965    0.359    1    1;
    106      138    0.962   0.3547    1    1;
    107      138    0.952    0.306    1    1;
    108      138    0.967   0.3382    1    1;
    109      138    0.967   0.3304    1    1;
    110      138    0.973   0.3157    1    1;
    111      138     0.98   0.3445    1    1;
    112      138    0.975   0.2616    1    1;
    113      138    0.993   0.2398    1    1;
    114      138     0.96   0.2524    1    1;
    115      138     0.96   0.2524    1    1;
    116      138    1.005   0.4733    1    1;
    117      138    0.974   0.1862    1    1;
    118      138    0.949   0.3826    1    1;
   ];

SW.con = [ ...
     69      100      138    1.035   0.5236        3       -3     1.06     0.94    5.164 1 1  1;
   ];

PV.con = [ ...
   1      100      138        0    0.955     0.15    -0.05     1.06     0.94 1  1;
   4      100      138        0    0.998        3       -3     1.06     0.94 1  1;
   6      100      138        0     0.99      0.5    -0.13     1.06     0.94 1  1;
   8      100      345        0    1.015        3       -3     1.06     0.94 1  1;
  10      100      345      4.5     1.05        2    -1.47     1.06     0.94 1  1;
  12      100      138     0.85     0.99      1.2    -0.35     1.06     0.94 1  1;
  15      100      138        0     0.97      0.3     -0.1     1.06     0.94 1  1;
  18      100      138        0    0.973      0.5    -0.16     1.06     0.94 1  1;
  19      100      138        0    0.962     0.24    -0.08     1.06     0.94 1  1;
  24      100      138        0    0.992        3       -3     1.06     0.94 1  1;
  25      100      138      2.2     1.05      1.4    -0.47     1.06     0.94 1  1;
  26      100      345     3.14    1.015       10      -10     1.06     0.94 1  1;
  27      100      138        0    0.968        3       -3     1.06     0.94 1  1;
  31      100      138     0.07    0.967        3       -3     1.06     0.94 1  1;
  32      100      138        0    0.963     0.42    -0.14     1.06     0.94 1  1;
  34      100      138        0    0.984     0.24    -0.08     1.06     0.94 1  1;
  36      100      138        0     0.98     0.24    -0.08     1.06     0.94 1  1;
  40      100      138        0     0.97        3       -3     1.06     0.94 1  1;
  42      100      138        0    0.985        3       -3     1.06     0.94 1  1;
  46      100      138     0.19    1.005        1       -1     1.06     0.94 1  1;
  49      100      138     2.04    1.025      2.1    -0.85     1.06     0.94 1  1;
  54      100      138     0.48    0.955        3       -3     1.06     0.94 1  1;
  55      100      138        0    0.952     0.23    -0.08     1.06     0.94 1  1;
  56      100      138        0    0.954     0.15    -0.08     1.06     0.94 1  1;
  59      100      138     1.55    0.985      1.8     -0.6     1.06     0.94 1  1;
  61      100      138      1.6    0.995        3       -1     1.06     0.94 1  1;
  62      100      138        0    0.998      0.2     -0.2     1.06     0.94 1  1;
  65      100      345     3.91    1.005        2    -0.67     1.06     0.94 1  1;
  66      100      138     3.92     1.05        2    -0.67     1.06     0.94 1  1;
  70      100      138        0    0.984     0.32     -0.1     1.06     0.94 1  1;
  72      100      138        0     0.98        1       -1     1.06     0.94 1  1;
  73      100      138        0    0.991        1       -1     1.06     0.94 1  1;
  74      100      138        0    0.958     0.09    -0.06     1.06     0.94 1  1;
  76      100      138        0    0.943     0.23    -0.08     1.06     0.94 1  1;
  77      100      138        0    1.006      0.7     -0.2     1.06     0.94 1  1;
  80      100      138     4.77     1.04      2.8    -1.65     1.06     0.94 1  1;
  85      100      138        0    0.985     0.23    -0.08     1.06     0.94 1  1;
  87      100      161     0.04    1.015       10       -1     1.06     0.94 1  1;
  89      100      138     6.07    1.005        3     -2.1     1.06     0.94 1  1;
  90      100      138        0    0.985        3       -3     1.06     0.94 1  1;
  91      100      138        0     0.98        1       -1     1.06     0.94 1  1;
  92      100      138        0     0.99     0.09    -0.03     1.06     0.94 1  1;
  99      100      138        0     1.01        1       -1     1.06     0.94 1  1;
 100      100      138     2.52    1.017     1.55     -0.5     1.06     0.94 1  1;
 103      100      138      0.4     1.01      0.4    -0.15     1.06     0.94 1  1;
 104      100      138        0    0.971     0.23    -0.08     1.06     0.94 1  1;
 105      100      138        0    0.965     0.23    -0.08     1.06     0.94 1  1;
 107      100      138        0    0.952        2       -2     1.06     0.94 1  1;
 110      100      138        0    0.973     0.23    -0.08     1.06     0.94 1  1;
 111      100      138     0.36     0.98       10       -1     1.06     0.94 1  1;
 112      100      138        0    0.975       10       -1     1.06     0.94 1  1;
 113      100      138        0    0.993        2       -1     1.06     0.94 1  1;
 116      100      138        0    1.005       10      -10     1.06     0.94 1  1;
   ];

PQ.con = [ ...
   1 100      138     0.51     0.27     1.06     0.94 0 1;
   2 100      138      0.2     0.09     1.06     0.94 0 1;
   3 100      138     0.39      0.1     1.06     0.94 0 1;
   4 100      138     0.39     0.12     1.06     0.94 0 1;
   6 100      138     0.52     0.22     1.06     0.94 0 1;
   7 100      138     0.19     0.02     1.06     0.94 0 1;
   8 100      345     0.28        0     1.06     0.94 0 1;
  11 100      138      0.7     0.23     1.06     0.94 0 1;
  12 100      138     0.47      0.1     1.06     0.94 0 1;
  13 100      138     0.34     0.16     1.06     0.94 0 1;
  14 100      138     0.14     0.01     1.06     0.94 0 1;
  15 100      138      0.9      0.3     1.06     0.94 0 1;
  16 100      138     0.25      0.1     1.06     0.94 0 1;
  17 100      138     0.11     0.03     1.06     0.94 0 1;
  18 100      138      0.6     0.34     1.06     0.94 0 1;
  19 100      138     0.45     0.25     1.06     0.94 0 1;
  20 100      138     0.18     0.03     1.06     0.94 0 1;
  21 100      138     0.14     0.08     1.06     0.94 0 1;
  22 100      138      0.1     0.05     1.06     0.94 0 1;
  23 100      138     0.07     0.03     1.06     0.94 0 1;
  24 100      138     0.13        0     1.06     0.94 0 1;
  27 100      138     0.71     0.13     1.06     0.94 0 1;
  28 100      138     0.17     0.07     1.06     0.94 0 1;
  29 100      138     0.24     0.04     1.06     0.94 0 1;
  31 100      138     0.43     0.27     1.06     0.94 0 1;
  32 100      138     0.59     0.23     1.06     0.94 0 1;
  33 100      138     0.23     0.09     1.06     0.94 0 1;
  34 100      138     0.59     0.26     1.06     0.94 0 1;
  35 100      138     0.33     0.09     1.06     0.94 0 1;
  36 100      138     0.31     0.17     1.06     0.94 0 1;
  39 100      138     0.27     0.11     1.06     0.94 0 1;
  40 100      138     0.66     0.23     1.06     0.94 0 1;
  41 100      138     0.37      0.1     1.06     0.94 0 1;
  42 100      138     0.96     0.23     1.06     0.94 0 1;
  43 100      138     0.18     0.07     1.06     0.94 0 1;
  44 100      138     0.16     0.08     1.06     0.94 0 1;
  45 100      138     0.53     0.22     1.06     0.94 0 1;
  46 100      138     0.28      0.1     1.06     0.94 0 1;
  47 100      138     0.34        0     1.06     0.94 0 1;
  48 100      138      0.2     0.11     1.06     0.94 0 1;
  49 100      138     0.87      0.3     1.06     0.94 0 1;
  50 100      138     0.17     0.04     1.06     0.94 0 1;
  51 100      138     0.17     0.08     1.06     0.94 0 1;
  52 100      138     0.18     0.05     1.06     0.94 0 1;
  53 100      138     0.23     0.11     1.06     0.94 0 1;
  54 100      138     1.13     0.32     1.06     0.94 0 1;
  55 100      138     0.63     0.22     1.06     0.94 0 1;
  56 100      138     0.84     0.18     1.06     0.94 0 1;
  57 100      138     0.12     0.03     1.06     0.94 0 1;
  58 100      138     0.12     0.03     1.06     0.94 0 1;
  59 100      138     2.77     1.13     1.06     0.94 0 1;
  60 100      138     0.78     0.03     1.06     0.94 0 1;
  62 100      138     0.77     0.14     1.06     0.94 0 1;
  66 100      138     0.39     0.18     1.06     0.94 0 1;
  67 100      138     0.28     0.07     1.06     0.94 0 1;
  70 100      138     0.66      0.2     1.06     0.94 0 1;
  72 100      138     0.12        0     1.06     0.94 0 1;
  73 100      138     0.06        0     1.06     0.94 0 1;
  74 100      138     0.68     0.27     1.06     0.94 0 1;
  75 100      138     0.47     0.11     1.06     0.94 0 1;
  76 100      138     0.68     0.36     1.06     0.94 0 1;
  77 100      138     0.61     0.28     1.06     0.94 0 1;
  78 100      138     0.71     0.26     1.06     0.94 0 1;
  79 100      138     0.39     0.32     1.06     0.94 0 1;
  80 100      138      1.3     0.26     1.06     0.94 0 1;
  82 100      138     0.54     0.27     1.06     0.94 0 1;
  83 100      138      0.2      0.1     1.06     0.94 0 1;
  84 100      138     0.11     0.07     1.06     0.94 0 1;
  85 100      138     0.24     0.15     1.06     0.94 0 1;
  86 100      138     0.21      0.1     1.06     0.94 0 1;
  88 100      138     0.48      0.1     1.06     0.94 0 1;
  90 100      138     1.63     0.42     1.06     0.94 0 1;
  91 100      138      0.1        0     1.06     0.94 0 1;
  92 100      138     0.65      0.1     1.06     0.94 0 1;
  93 100      138     0.12     0.07     1.06     0.94 0 1;
  94 100      138      0.3     0.16     1.06     0.94 0 1;
  95 100      138     0.42     0.31     1.06     0.94 0 1;
  96 100      138     0.38     0.15     1.06     0.94 0 1;
  97 100      138     0.15     0.09     1.06     0.94 0 1;
  98 100      138     0.34     0.08     1.06     0.94 0 1;
  99 100      138     0.42        0     1.06     0.94 0 1;
 100 100      138     0.37     0.18     1.06     0.94 0 1;
 101 100      138     0.22     0.15     1.06     0.94 0 1;
 102 100      138     0.05     0.03     1.06     0.94 0 1;
 103 100      138     0.23     0.16     1.06     0.94 0 1;
 104 100      138     0.38     0.25     1.06     0.94 0 1;
 105 100      138     0.31     0.26     1.06     0.94 0 1;
 106 100      138     0.43     0.16     1.06     0.94 0 1;
 107 100      138      0.5     0.12     1.06     0.94 0 1;
 108 100      138     0.02     0.01     1.06     0.94 0 1;
 109 100      138     0.08     0.03     1.06     0.94 0 1;
 110 100      138     0.39      0.3     1.06     0.94 0 1;
 112 100      138     0.68     0.13     1.06     0.94 0 1;
 113 100      138     0.06        0     1.06     0.94 0 1;
 114 100      138     0.08     0.03     1.06     0.94 0 1;
 115 100      138     0.22     0.07     1.06     0.94 0 1;
 116 100      138     1.84        0     1.06     0.94 0 1;
 117 100      138      0.2     0.08     1.06     0.94 0 1;
 118 100      138     0.33     0.15     1.06     0.94 0 1;
   5 100      138        0        0     1.06     0.94 0 1;
   9 100      345        0        0     1.06     0.94 0 1;
  30 100      345        0        0     1.06     0.94 0 1;
  37 100      138        0        0     1.06     0.94 0 1;
  38 100      345        0        0     1.06     0.94 0 1;
  63 100      345        0        0     1.06     0.94 0 1;
  64 100      345        0        0     1.06     0.94 0 1;
  68 100      345        0        0     1.06     0.94 0 1;
  71 100      138        0        0     1.06     0.94 0 1;
  81 100      345        0        0     1.06     0.94 0 1;
   ];

Shunt.con = [ ...
   5 100      138 60        0     -0.4 1;
  34 100      138 60        0     0.14 1;
  37 100      138 60        0    -0.25 1;
  44 100      138 60        0      0.1 1;
  45 100      138 60        0      0.1 1;
  46 100      138 60        0      0.1 1;
  48 100      138 60        0     0.15 1;
  74 100      138 60        0     0.12 1;
  79 100      138 60        0      0.2 1;
  82 100      138 60        0      0.2 1;
  83 100      138 60        0      0.1 1;
 105 100      138 60        0      0.2 1;
 107 100      138 60        0     0.06 1;
 110 100      138 60        0     0.06 1;
   ];

Line.con = [ ...
   1    2 100      138 60 0         0   0.0303   0.0999   0.0254        0        0       99        0        0  1;
   1    3 100      138 60 0         0   0.0129   0.0424  0.01082        0        0       99        0        0  1;
   4    5 100      138 60 0         0  0.00176  0.00798   0.0021        0        0       99        0        0  1;
   3    5 100      138 60 0         0   0.0241    0.108   0.0284        0        0       99        0        0  1;
   5    6 100      138 60 0         0   0.0119    0.054  0.01426        0        0       99        0        0  1;
   6    7 100      138 60 0         0  0.00459   0.0208   0.0055        0        0       99        0        0  1;
   8    9 100      345 60 0         0  0.00244   0.0305    1.162        0        0       99        0        0  1;
   8    5 100      345 60 0       2.5        0   0.0267        0    0.985        0       99        0        0  1;
   9   10 100      345 60 0         0  0.00258   0.0322     1.23        0        0       99        0        0  1;
   4   11 100      138 60 0         0   0.0209   0.0688  0.01748        0        0       99        0        0  1;
   5   11 100      138 60 0         0   0.0203   0.0682  0.01738        0        0       99        0        0  1;
  11   12 100      138 60 0         0  0.00595   0.0196  0.00502        0        0       99        0        0  1;
   2   12 100      138 60 0         0   0.0187   0.0616  0.01572        0        0       99        0        0  1;
   3   12 100      138 60 0         0   0.0484     0.16   0.0406        0        0       99        0        0  1;
   7   12 100      138 60 0         0  0.00862    0.034  0.00874        0        0       99        0        0  1;
  11   13 100      138 60 0         0  0.02225   0.0731  0.01876        0        0       99        0        0  1;
  12   14 100      138 60 0         0   0.0215   0.0707  0.01816        0        0       99        0        0  1;
  13   15 100      138 60 0         0   0.0744   0.2444  0.06268        0        0       99        0        0  1;
  14   15 100      138 60 0         0   0.0595    0.195   0.0502        0        0       99        0        0  1;
  12   16 100      138 60 0         0   0.0212   0.0834   0.0214        0        0       99        0        0  1;
  15   17 100      138 60 0         0   0.0132   0.0437   0.0444        0        0       99        0        0  1;
  16   17 100      138 60 0         0   0.0454   0.1801   0.0466        0        0       99        0        0  1;
  17   18 100      138 60 0         0   0.0123   0.0505  0.01298        0        0       99        0        0  1;
  18   19 100      138 60 0         0  0.01119   0.0493  0.01142        0        0       99        0        0  1;
  19   20 100      138 60 0         0   0.0252    0.117   0.0298        0        0       99        0        0  1;
  15   19 100      138 60 0         0    0.012   0.0394   0.0101        0        0       99        0        0  1;
  20   21 100      138 60 0         0   0.0183   0.0849   0.0216        0        0       99        0        0  1;
  21   22 100      138 60 0         0   0.0209    0.097   0.0246        0        0       99        0        0  1;
  22   23 100      138 60 0         0   0.0342    0.159   0.0404        0        0       99        0        0  1;
  23   24 100      138 60 0         0   0.0135   0.0492   0.0498        0        0       99        0        0  1;
  23   25 100      138 60 0         0   0.0156     0.08   0.0864        0        0       99        0        0  1;
  26   25 100      345 60 0       2.5        0   0.0382        0     0.96        0       99        0        0  1;
  25   27 100      138 60 0         0   0.0318    0.163   0.1764        0        0       99        0        0  1;
  27   28 100      138 60 0         0  0.01913   0.0855   0.0216        0        0       99        0        0  1;
  28   29 100      138 60 0         0   0.0237   0.0943   0.0238        0        0       99        0        0  1;
  30   17 100      345 60 0       2.5        0   0.0388        0     0.96        0       99        0        0  1;
   8   30 100      345 60 0         0  0.00431   0.0504    0.514        0        0       99        0        0  1;
  26   30 100      345 60 0         0  0.00799    0.086    0.908        0        0       99        0        0  1;
  17   31 100      138 60 0         0   0.0474   0.1563   0.0399        0        0       99        0        0  1;
  29   31 100      138 60 0         0   0.0108   0.0331   0.0083        0        0       99        0        0  1;
  23   32 100      138 60 0         0   0.0317   0.1153   0.1173        0        0       99        0        0  1;
  31   32 100      138 60 0         0   0.0298   0.0985   0.0251        0        0       99        0        0  1;
  27   32 100      138 60 0         0   0.0229   0.0755  0.01926        0        0       99        0        0  1;
  15   33 100      138 60 0         0    0.038   0.1244  0.03194        0        0       99        0        0  1;
  19   34 100      138 60 0         0   0.0752    0.247   0.0632        0        0       99        0        0  1;
  35   36 100      138 60 0         0  0.00224   0.0102  0.00268        0        0       99        0        0  1;
  35   37 100      138 60 0         0    0.011   0.0497  0.01318        0        0       99        0        0  1;
  33   37 100      138 60 0         0   0.0415    0.142   0.0366        0        0       99        0        0  1;
  34   36 100      138 60 0         0  0.00871   0.0268  0.00568        0        0       99        0        0  1;
  34   37 100      138 60 0         0  0.00256   0.0094  0.00984        0        0       99        0        0  1;
  38   37 100      345 60 0       2.5        0   0.0375        0    0.935        0       99        0        0  1;
  37   39 100      138 60 0         0   0.0321    0.106    0.027        0        0       99        0        0  1;
  37   40 100      138 60 0         0   0.0593    0.168    0.042        0        0       99        0        0  1;
  30   38 100      345 60 0         0  0.00464    0.054    0.422        0        0       99        0        0  1;
  39   40 100      138 60 0         0   0.0184   0.0605  0.01552        0        0       99        0        0  1;
  40   41 100      138 60 0         0   0.0145   0.0487  0.01222        0        0       99        0        0  1;
  40   42 100      138 60 0         0   0.0555    0.183   0.0466        0        0       99        0        0  1;
  41   42 100      138 60 0         0    0.041    0.135   0.0344        0        0       99        0        0  1;
  43   44 100      138 60 0         0   0.0608   0.2454  0.06068        0        0       99        0        0  1;
  34   43 100      138 60 0         0   0.0413   0.1681  0.04226        0        0       99        0        0  1;
  44   45 100      138 60 0         0   0.0224   0.0901   0.0224        0        0       99        0        0  1;
  45   46 100      138 60 0         0     0.04   0.1356   0.0332        0        0       99        0        0  1;
  46   47 100      138 60 0         0    0.038    0.127   0.0316        0        0       99        0        0  1;
  46   48 100      138 60 0         0   0.0601    0.189   0.0472        0        0       99        0        0  1;
  47   49 100      138 60 0         0   0.0191   0.0625  0.01604        0        0       99        0        0  1;
  42   49 100      138 60 0         0   0.0715    0.323    0.086        0        0       99        0        0  1;
  42   49 100      138 60 0         0   0.0715    0.323    0.086        0        0       99        0        0  1;
  45   49 100      138 60 0         0   0.0684    0.186   0.0444        0        0       99        0        0  1;
  48   49 100      138 60 0         0   0.0179   0.0505  0.01258        0        0       99        0        0  1;
  49   50 100      138 60 0         0   0.0267   0.0752  0.01874        0        0       99        0        0  1;
  49   51 100      138 60 0         0   0.0486    0.137   0.0342        0        0       99        0        0  1;
  51   52 100      138 60 0         0   0.0203   0.0588  0.01396        0        0       99        0        0  1;
  52   53 100      138 60 0         0   0.0405   0.1635  0.04058        0        0       99        0        0  1;
  53   54 100      138 60 0         0   0.0263    0.122    0.031        0        0       99        0        0  1;
  49   54 100      138 60 0         0    0.073    0.289   0.0738        0        0       99        0        0  1;
  49   54 100      138 60 0         0   0.0869    0.291    0.073        0        0       99        0        0  1;
  54   55 100      138 60 0         0   0.0169   0.0707   0.0202        0        0       99        0        0  1;
  54   56 100      138 60 0         0  0.00275  0.00955  0.00732        0        0       99        0        0  1;
  55   56 100      138 60 0         0  0.00488   0.0151  0.00374        0        0       99        0        0  1;
  56   57 100      138 60 0         0   0.0343   0.0966   0.0242        0        0       99        0        0  1;
  50   57 100      138 60 0         0   0.0474    0.134   0.0332        0        0       99        0        0  1;
  56   58 100      138 60 0         0   0.0343   0.0966   0.0242        0        0       99        0        0  1;
  51   58 100      138 60 0         0   0.0255   0.0719  0.01788        0        0       99        0        0  1;
  54   59 100      138 60 0         0   0.0503   0.2293   0.0598        0        0       99        0        0  1;
  56   59 100      138 60 0         0   0.0825    0.251   0.0569        0        0       99        0        0  1;
  56   59 100      138 60 0         0   0.0803    0.239   0.0536        0        0       99        0        0  1;
  55   59 100      138 60 0         0  0.04739   0.2158  0.05646        0        0       99        0        0  1;
  59   60 100      138 60 0         0   0.0317    0.145   0.0376        0        0       99        0        0  1;
  59   61 100      138 60 0         0   0.0328     0.15   0.0388        0        0       99        0        0  1;
  60   61 100      138 60 0         0  0.00264   0.0135  0.01456        0        0       99        0        0  1;
  60   62 100      138 60 0         0   0.0123   0.0561  0.01468        0        0       99        0        0  1;
  61   62 100      138 60 0         0  0.00824   0.0376   0.0098        0        0       99        0        0  1;
  63   59 100      345 60 0       2.5        0   0.0386        0     0.96        0       99        0        0  1;
  63   64 100      345 60 0         0  0.00172     0.02    0.216        0        0       99        0        0  1;
  64   61 100      345 60 0       2.5        0   0.0268        0    0.985        0       99        0        0  1;
  38   65 100      345 60 0         0  0.00901   0.0986    1.046        0        0       99        0        0  1;
  64   65 100      345 60 0         0  0.00269   0.0302     0.38        0        0       99        0        0  1;
  49   66 100      138 60 0         0    0.018   0.0919   0.0248        0        0       99        0        0  1;
  49   66 100      138 60 0         0    0.018   0.0919   0.0248        0        0       99        0        0  1;
  62   66 100      138 60 0         0   0.0482    0.218   0.0578        0        0       99        0        0  1;
  62   67 100      138 60 0         0   0.0258    0.117    0.031        0        0       99        0        0  1;
  65   66 100      345 60 0       2.5        0    0.037        0    0.935        0       99        0        0  1;
  66   67 100      138 60 0         0   0.0224   0.1015  0.02682        0        0       99        0        0  1;
  65   68 100      345 60 0         0  0.00138    0.016    0.638        0        0       99        0        0  1;
  47   69 100      138 60 0         0   0.0844   0.2778  0.07092        0        0       99        0        0  1;
  49   69 100      138 60 0         0   0.0985    0.324   0.0828        0        0       99        0        0  1;
  68   69 100      345 60 0       2.5        0    0.037        0    0.935        0       99        0        0  1;
  69   70 100      138 60 0         0     0.03    0.127    0.122        0        0       99        0        0  1;
  24   70 100      138 60 0         0  0.00221   0.4115    0.102        0        0       99        0        0  1;
  70   71 100      138 60 0         0  0.00882   0.0355  0.00878        0        0       99        0        0  1;
  24   72 100      138 60 0         0   0.0488    0.196   0.0488        0        0       99        0        0  1;
  71   72 100      138 60 0         0   0.0446     0.18  0.04444        0        0       99        0        0  1;
  71   73 100      138 60 0         0  0.00866   0.0454  0.01178        0        0       99        0        0  1;
  70   74 100      138 60 0         0   0.0401   0.1323  0.03368        0        0       99        0        0  1;
  70   75 100      138 60 0         0   0.0428    0.141    0.036        0        0       99        0        0  1;
  69   75 100      138 60 0         0   0.0405    0.122    0.124        0        0       99        0        0  1;
  74   75 100      138 60 0         0   0.0123   0.0406  0.01034        0        0       99        0        0  1;
  76   77 100      138 60 0         0   0.0444    0.148   0.0368        0        0       99        0        0  1;
  69   77 100      138 60 0         0   0.0309    0.101   0.1038        0        0       99        0        0  1;
  75   77 100      138 60 0         0   0.0601   0.1999  0.04978        0        0       99        0        0  1;
  77   78 100      138 60 0         0  0.00376   0.0124  0.01264        0        0       99        0        0  1;
  78   79 100      138 60 0         0  0.00546   0.0244  0.00648        0        0       99        0        0  1;
  77   80 100      138 60 0         0    0.017   0.0485   0.0472        0        0       99        0        0  1;
  77   80 100      138 60 0         0   0.0294    0.105   0.0228        0        0       99        0        0  1;
  79   80 100      138 60 0         0   0.0156   0.0704   0.0187        0        0       99        0        0  1;
  68   81 100      345 60 0         0  0.00175   0.0202    0.808        0        0       99        0        0  1;
  81   80 100      345 60 0       2.5        0    0.037        0    0.935        0       99        0        0  1;
  77   82 100      138 60 0         0   0.0298   0.0853  0.08174        0        0       99        0        0  1;
  82   83 100      138 60 0         0   0.0112  0.03665  0.03796        0        0       99        0        0  1;
  83   84 100      138 60 0         0   0.0625    0.132   0.0258        0        0       99        0        0  1;
  83   85 100      138 60 0         0    0.043    0.148   0.0348        0        0       99        0        0  1;
  84   85 100      138 60 0         0   0.0302   0.0641  0.01234        0        0       99        0        0  1;
  85   86 100      138 60 0         0    0.035    0.123   0.0276        0        0       99        0        0  1;
  86   87 100      138 60 0         0  0.02828   0.2074   0.0445        0        0       99        0        0  1;
  85   88 100      138 60 0         0     0.02    0.102   0.0276        0        0       99        0        0  1;
  85   89 100      138 60 0         0   0.0239    0.173    0.047        0        0       99        0        0  1;
  88   89 100      138 60 0         0   0.0139   0.0712  0.01934        0        0       99        0        0  1;
  89   90 100      138 60 0         0   0.0518    0.188   0.0528        0        0       99        0        0  1;
  89   90 100      138 60 0         0   0.0238   0.0997    0.106        0        0       99        0        0  1;
  90   91 100      138 60 0         0   0.0254   0.0836   0.0214        0        0       99        0        0  1;
  89   92 100      138 60 0         0   0.0099   0.0505   0.0548        0        0       99        0        0  1;
  89   92 100      138 60 0         0   0.0393   0.1581   0.0414        0        0       99        0        0  1;
  91   92 100      138 60 0         0   0.0387   0.1272  0.03268        0        0       99        0        0  1;
  92   93 100      138 60 0         0   0.0258   0.0848   0.0218        0        0       99        0        0  1;
  92   94 100      138 60 0         0   0.0481    0.158   0.0406        0        0       99        0        0  1;
  93   94 100      138 60 0         0   0.0223   0.0732  0.01876        0        0       99        0        0  1;
  94   95 100      138 60 0         0   0.0132   0.0434   0.0111        0        0       99        0        0  1;
  80   96 100      138 60 0         0   0.0356    0.182   0.0494        0        0       99        0        0  1;
  82   96 100      138 60 0         0   0.0162    0.053   0.0544        0        0       99        0        0  1;
  94   96 100      138 60 0         0   0.0269   0.0869    0.023        0        0       99        0        0  1;
  80   97 100      138 60 0         0   0.0183   0.0934   0.0254        0        0       99        0        0  1;
  80   98 100      138 60 0         0   0.0238    0.108   0.0286        0        0       99        0        0  1;
  80   99 100      138 60 0         0   0.0454    0.206   0.0546        0        0       99        0        0  1;
  92  100 100      138 60 0         0   0.0648    0.295   0.0472        0        0       99        0        0  1;
  94  100 100      138 60 0         0   0.0178    0.058   0.0604        0        0       99        0        0  1;
  95   96 100      138 60 0         0   0.0171   0.0547  0.01474        0        0       99        0        0  1;
  96   97 100      138 60 0         0   0.0173   0.0885    0.024        0        0       99        0        0  1;
  98  100 100      138 60 0         0   0.0397    0.179   0.0476        0        0       99        0        0  1;
  99  100 100      138 60 0         0    0.018   0.0813   0.0216        0        0       99        0        0  1;
 100  101 100      138 60 0         0   0.0277   0.1262   0.0328        0        0       99        0        0  1;
  92  102 100      138 60 0         0   0.0123   0.0559  0.01464        0        0       99        0        0  1;
 101  102 100      138 60 0         0   0.0246    0.112   0.0294        0        0       99        0        0  1;
 100  103 100      138 60 0         0    0.016   0.0525   0.0536        0        0       99        0        0  1;
 100  104 100      138 60 0         0   0.0451    0.204   0.0541        0        0       99        0        0  1;
 103  104 100      138 60 0         0   0.0466   0.1584   0.0407        0        0       99        0        0  1;
 103  105 100      138 60 0         0   0.0535   0.1625   0.0408        0        0       99        0        0  1;
 100  106 100      138 60 0         0   0.0605    0.229    0.062        0        0       99        0        0  1;
 104  105 100      138 60 0         0  0.00994   0.0378  0.00986        0        0       99        0        0  1;
 105  106 100      138 60 0         0    0.014   0.0547  0.01434        0        0       99        0        0  1;
 105  107 100      138 60 0         0    0.053    0.183   0.0472        0        0       99        0        0  1;
 105  108 100      138 60 0         0   0.0261   0.0703  0.01844        0        0       99        0        0  1;
 106  107 100      138 60 0         0    0.053    0.183   0.0472        0        0       99        0        0  1;
 108  109 100      138 60 0         0   0.0105   0.0288   0.0076        0        0       99        0        0  1;
 103  110 100      138 60 0         0  0.03906   0.1813   0.0461        0        0       99        0        0  1;
 109  110 100      138 60 0         0   0.0278   0.0762   0.0202        0        0       99        0        0  1;
 110  111 100      138 60 0         0    0.022   0.0755     0.02        0        0       99        0        0  1;
 110  112 100      138 60 0         0   0.0247    0.064    0.062        0        0       99        0        0  1;
  17  113 100      138 60 0         0  0.00913   0.0301  0.00768        0        0       99        0        0  1;
  32  113 100      138 60 0         0   0.0615    0.203   0.0518        0        0       99        0        0  1;
  32  114 100      138 60 0         0   0.0135   0.0612  0.01628        0        0       99        0        0  1;
  27  115 100      138 60 0         0   0.0164   0.0741  0.01972        0        0       99        0        0  1;
 114  115 100      138 60 0         0   0.0023   0.0104  0.00276        0        0       99        0        0  1;
  68  116 100      345 60 0         0  0.00034  0.00405    0.164        0        0       99        0        0  1;
  12  117 100      138 60 0         0   0.0329     0.14   0.0358        0        0       99        0        0  1;
  75  118 100      138 60 0         0   0.0145   0.0481  0.01198        0        0       99        0        0  1;
  76  118 100      138 60 0         0   0.0164   0.0544  0.01356        0        0       99        0        0  1;
   ];

Supply.con = [ ...
   1       100        0        1        0        0        0       40     0.01        0        0        0  1 0 1;
   4       100        0        1        0        0        0       40     0.01        0        0        0  1 0 1;
   6       100        0        1        0        0        0       40     0.01        0        0        0  1 0 1;
   8       100        0        1        0        0        0       40     0.01        0        0        0  1 0 1;
  10       100        0      5.5        0        0        0       20  0.02222        0        0        0  1 0 1;
  12       100        0     1.85        0        0        0       20   0.1176        0        0        0  1 0 1;
  15       100        0        1        0        0        0       40     0.01        0        0        0  1 0 1;
  18       100        0        1        0        0        0       40     0.01        0        0        0  1 0 1;
  19       100        0        1        0        0        0       40     0.01        0        0        0  1 0 1;
  24       100        0        1        0        0        0       40     0.01        0        0        0  1 0 1;
  25       100        0      3.2        0        0        0       20  0.04545        0        0        0  1 0 1;
  26       100        0     4.14        0        0        0       20  0.03185        0        0        0  1 0 1;
  27       100        0        1        0        0        0       40     0.01        0        0        0  1 0 1;
  31       100        0     1.07        0        0        0       20    1.429        0        0        0  1 0 1;
  32       100        0        1        0        0        0       40     0.01        0        0        0  1 0 1;
  34       100        0        1        0        0        0       40     0.01        0        0        0  1 0 1;
  36       100        0        1        0        0        0       40     0.01        0        0        0  1 0 1;
  40       100        0        1        0        0        0       40     0.01        0        0        0  1 0 1;
  42       100        0        1        0        0        0       40     0.01        0        0        0  1 0 1;
  46       100        0     1.19        0        0        0       20   0.5263        0        0        0  1 0 1;
  49       100        0     3.04        0        0        0       20  0.04902        0        0        0  1 0 1;
  54       100        0     1.48        0        0        0       20   0.2083        0        0        0  1 0 1;
  55       100        0        1        0        0        0       40     0.01        0        0        0  1 0 1;
  56       100        0        1        0        0        0       40     0.01        0        0        0  1 0 1;
  59       100        0     2.55        0        0        0       20  0.06452        0        0        0  1 0 1;
  61       100        0      2.6        0        0        0       20   0.0625        0        0        0  1 0 1;
  62       100        0        1        0        0        0       40     0.01        0        0        0  1 0 1;
  65       100        0     4.91        0        0        0       20  0.02558        0        0        0  1 0 1;
  66       100        0     4.92        0        0        0       20  0.02551        0        0        0  1 0 1;
  69       100        0    8.052        0        0        0       20  0.01936        0        0        0  1 0 1;
  70       100        0        1        0        0        0       40     0.01        0        0        0  1 0 1;
  72       100        0        1        0        0        0       40     0.01        0        0        0  1 0 1;
  73       100        0        1        0        0        0       40     0.01        0        0        0  1 0 1;
  74       100        0        1        0        0        0       40     0.01        0        0        0  1 0 1;
  76       100        0        1        0        0        0       40     0.01        0        0        0  1 0 1;
  77       100        0        1        0        0        0       40     0.01        0        0        0  1 0 1;
  80       100        0     5.77        0        0        0       20  0.02096        0        0        0  1 0 1;
  85       100        0        1        0        0        0       40     0.01        0        0        0  1 0 1;
  87       100        0     1.04        0        0        0       20      2.5        0        0        0  1 0 1;
  89       100        0     7.07        0        0        0       20  0.01647        0        0        0  1 0 1;
  90       100        0        1        0        0        0       40     0.01        0        0        0  1 0 1;
  91       100        0        1        0        0        0       40     0.01        0        0        0  1 0 1;
  92       100        0        1        0        0        0       40     0.01        0        0        0  1 0 1;
  99       100        0        1        0        0        0       40     0.01        0        0        0  1 0 1;
 100       100        0     3.52        0        0        0       20  0.03968        0        0        0  1 0 1;
 103       100        0      1.4        0        0        0       20     0.25        0        0        0  1 0 1;
 104       100        0        1        0        0        0       40     0.01        0        0        0  1 0 1;
 105       100        0        1        0        0        0       40     0.01        0        0        0  1 0 1;
 107       100        0        1        0        0        0       40     0.01        0        0        0  1 0 1;
 110       100        0        1        0        0        0       40     0.01        0        0        0  1 0 1;
 111       100        0     1.36        0        0        0       20   0.2778        0        0        0  1 0 1;
 112       100        0        1        0        0        0       40     0.01        0        0        0  1 0 1;
 113       100        0        1        0        0        0       40     0.01        0        0        0  1 0 1;
 116       100        0        1        0        0        0       40     0.01        0        0        0  1 0 1;
   ];

Bus.names = {...
      'Bus 1'; 'Bus 2'; 'Bus 3'; 'Bus 4'; 'Bus 5'; 
      'Bus 6'; 'Bus 7'; 'Bus 8'; 'Bus 9'; 'Bus 10'; 
      'Bus 11'; 'Bus 12'; 'Bus 13'; 'Bus 14'; 'Bus 15'; 
      'Bus 16'; 'Bus 17'; 'Bus 18'; 'Bus 19'; 'Bus 20'; 
      'Bus 21'; 'Bus 22'; 'Bus 23'; 'Bus 24'; 'Bus 25'; 
      'Bus 26'; 'Bus 27'; 'Bus 28'; 'Bus 29'; 'Bus 30'; 
      'Bus 31'; 'Bus 32'; 'Bus 33'; 'Bus 34'; 'Bus 35'; 
      'Bus 36'; 'Bus 37'; 'Bus 38'; 'Bus 39'; 'Bus 40'; 
      'Bus 41'; 'Bus 42'; 'Bus 43'; 'Bus 44'; 'Bus 45'; 
      'Bus 46'; 'Bus 47'; 'Bus 48'; 'Bus 49'; 'Bus 50'; 
      'Bus 51'; 'Bus 52'; 'Bus 53'; 'Bus 54'; 'Bus 55'; 
      'Bus 56'; 'Bus 57'; 'Bus 58'; 'Bus 59'; 'Bus 60'; 
      'Bus 61'; 'Bus 62'; 'Bus 63'; 'Bus 64'; 'Bus 65'; 
      'Bus 66'; 'Bus 67'; 'Bus 68'; 'Bus 69'; 'Bus 70'; 
      'Bus 71'; 'Bus 72'; 'Bus 73'; 'Bus 74'; 'Bus 75'; 
      'Bus 76'; 'Bus 77'; 'Bus 78'; 'Bus 79'; 'Bus 80'; 
      'Bus 81'; 'Bus 82'; 'Bus 83'; 'Bus 84'; 'Bus 85'; 
      'Bus 86'; 'Bus 87'; 'Bus 88'; 'Bus 89'; 'Bus 90'; 
      'Bus 91'; 'Bus 92'; 'Bus 93'; 'Bus 94'; 'Bus 95'; 
      'Bus 96'; 'Bus 97'; 'Bus 98'; 'Bus 99'; 'Bus 100'; 
      'Bus 101'; 'Bus 102'; 'Bus 103'; 'Bus 104'; 'Bus 105'; 
      'Bus 106'; 'Bus 107'; 'Bus 108'; 'Bus 109'; 'Bus 110'; 
      'Bus 111'; 'Bus 112'; 'Bus 113'; 'Bus 114'; 'Bus 115'; 
      'Bus 116'; 'Bus 117'; 'Bus 118'};

